gridlabd-4/PG&E/AL0001.glm
// PG&E AL0001 feeder model

module powerflow
{
    solver_method NR;
    default_maximum_voltage_error 1e-4;
}

//*********************************************
// Conductor Objects
//*********************************************
// OHCond_1/0_AAC_I
object overhead_line_conductor {
    name OHCond_1/0_AAC_I;
    resistance 0.8820750323;
    geometric_mean_radius 0.0110971584;
    diameter 0.367999264;
}

// OHCond_715_AAC_I
object overhead_line_conductor {
    name OHCond_715_AAC_I;
    resistance 0.1324968876;
    geometric_mean_radius 0.0311920128;
    diameter 0.972998054;
}

// OHCond_1/0_AAC_C
object overhead_line_conductor {
    name OHCond_1/0_AAC_C;
    resistance 0.8820750323;
    geometric_mean_radius 0.0110971584;
    diameter 0.367999264;
}

// OHCond_4_ACSR_I
object overhead_line_conductor {
    name OHCond_4_ACSR_I;
    resistance 2.1715395317;
    geometric_mean_radius 0.0524265688;
    diameter 0.2499995;
}

// OHCond_4_CU_C
object overhead_line_conductor {
    name OHCond_4_CU_C;
    resistance 1.4181103321;
    geometric_mean_radius 0.006998208;
    diameter 0.231999536;
}

// OHCond_6_CU_I
object overhead_line_conductor {
    name OHCond_6_CU_I;
    resistance 2.2113584416;
    geometric_mean_radius 0.00525866;
    diameter 0.161999676;
}

// OHCond_4/0_AAC_C
object overhead_line_conductor {
    name OHCond_4/0_AAC_C;
    resistance 0.4406874934;
    geometric_mean_radius 0.015765976;
    diameter 0.521998956;
}

// OHCond_8_CU_C
object overhead_line_conductor {
    name OHCond_8_CU_C;
    resistance 3.5140320754;
    geometric_mean_radius 0.0041689456;
    diameter 0.128499743;
}

// OHCond_DEFAULT
object overhead_line_conductor {
    name OHCond_DEFAULT;
    resistance 0.27792611;
    geometric_mean_radius 0.01667552;
    diameter 0.52799107;
}

// OHCond_4_ACSR_C
object overhead_line_conductor {
    name OHCond_4_ACSR_C;
    resistance 2.1715395317;
    geometric_mean_radius 0.0524265688;
    diameter 0.2499995;
}

// OHCond_1/0_CU_I
object overhead_line_conductor {
    name OHCond_1/0_CU_I;
    resistance 0.5615250025;
    geometric_mean_radius 0.0111371416;
    diameter 0.367999264;
}

// OHCond_4/0_AAC_I
object overhead_line_conductor {
    name OHCond_4/0_AAC_I;
    resistance 0.4406874934;
    geometric_mean_radius 0.015765976;
    diameter 0.521998956;
}

// OHCond_4_CU_I
object overhead_line_conductor {
    name OHCond_4_CU_I;
    resistance 1.4181103321;
    geometric_mean_radius 0.006998208;
    diameter 0.231999536;
}

// OHCond_397_AAC_I
object overhead_line_conductor {
    name OHCond_397_AAC_I;
    resistance 0.2354936969;
    geometric_mean_radius 0.0227941632;
    diameter 0.722998554;
}

// OHCond_6_CU_C
object overhead_line_conductor {
    name OHCond_6_CU_C;
    resistance 2.2113584416;
    geometric_mean_radius 0.00525866;
    diameter 0.161999676;
}

// UGCable_2_AL_PEC_22KV_3P
object underground_line_conductor {
    name UGCable_2_AL_PEC_22KV_3P;
    outer_diameter 0.6692917;
    conductor_gmr 0.01667552;
    conductor_diameter 0.52799107;
    conductor_resistance 0.27792611;
    neutral_gmr 0.01667552;
    neutral_resistance 0.27792611;
    neutral_diameter 0.52799107;
    neutral_strands 2;
}

// UGCable_1/0_AL_EPR-CONC-ENCAP-PE_2P&N
object underground_line_conductor {
    name UGCable_1/0_AL_EPR-CONC-ENCAP-PE_2P&N;
    outer_diameter 0.669290518897;
    conductor_gmr 0.01667552;
    conductor_diameter 0.52799107;
    conductor_resistance 0.27792611;
    neutral_gmr 0.01667552;
    neutral_resistance 0.27792611;
    neutral_diameter 0.52799107;
    neutral_strands 2;
}

// UGCable_1/0_AL_XLP-CON-ENCP-PE_22KV_3P
object underground_line_conductor {
    name UGCable_1/0_AL_XLP-CON-ENCP-PE_22KV_3P;
    outer_diameter 0.6692917;
    conductor_gmr 0.01667552;
    conductor_diameter 0.52799107;
    conductor_resistance 0.27792611;
    neutral_gmr 0.01667552;
    neutral_resistance 0.27792611;
    neutral_diameter 0.52799107;
    neutral_strands 2;
}

// UGCable_2_AL_XLP-CONC-PVC_22KV_3P
object underground_line_conductor {
    name UGCable_2_AL_XLP-CONC-PVC_22KV_3P;
    outer_diameter 0.6692917;
    conductor_gmr 0.01667552;
    conductor_diameter 0.52799107;
    conductor_resistance 0.27792611;
    neutral_gmr 0.01667552;
    neutral_resistance 0.27792611;
    neutral_diameter 0.52799107;
    neutral_strands 2;
}

// UGCable_1/0_AL_EPR-CONC-ENCAP-PE_1P
object underground_line_conductor {
    name UGCable_1/0_AL_EPR-CONC-ENCAP-PE_1P;
    outer_diameter 0.669290518897;
    conductor_gmr 0.01667552;
    conductor_diameter 0.52799107;
    conductor_resistance 0.27792611;
    neutral_gmr 0.01667552;
    neutral_resistance 0.27792611;
    neutral_diameter 0.52799107;
    neutral_strands 2;
}

// UGCable_1/0_AL_XLP-CONC-PVC_22KV_3P
object underground_line_conductor {
    name UGCable_1/0_AL_XLP-CONC-PVC_22KV_3P;
    outer_diameter 0.6692917;
    conductor_gmr 0.01667552;
    conductor_diameter 0.52799107;
    conductor_resistance 0.27792611;
    neutral_gmr 0.01667552;
    neutral_resistance 0.27792611;
    neutral_diameter 0.52799107;
    neutral_strands 2;
}

// UGCable_1/0_AL_XLP-CON-ENCP-PE_22KV_2P
object underground_line_conductor {
    name UGCable_1/0_AL_XLP-CON-ENCP-PE_22KV_2P;
    outer_diameter 0.669290518897;
    conductor_gmr 0.01667552;
    conductor_diameter 0.52799107;
    conductor_resistance 0.27792611;
    neutral_gmr 0.01667552;
    neutral_resistance 0.27792611;
    neutral_diameter 0.52799107;
    neutral_strands 2;
}

// UGCable_700_AL_XLP-CONC-PVC_22KV_3P
object underground_line_conductor {
    name UGCable_700_AL_XLP-CONC-PVC_22KV_3P;
    outer_diameter 0.6692917;
    conductor_gmr 0.01667552;
    conductor_diameter 0.52799107;
    conductor_resistance 0.27792611;
    neutral_gmr 0.01667552;
    neutral_resistance 0.27792611;
    neutral_diameter 0.52799107;
    neutral_strands 2;
}

// UGCable_2_AL_XLP-CONC-CIC_22KV_2P
object underground_line_conductor {
    name UGCable_2_AL_XLP-CONC-CIC_22KV_2P;
    outer_diameter 0.669290518897;
    conductor_gmr 0.01667552;
    conductor_diameter 0.52799107;
    conductor_resistance 0.27792611;
    neutral_gmr 0.01667552;
    neutral_resistance 0.27792611;
    neutral_diameter 0.52799107;
    neutral_strands 2;
}

// UGCable_1/0_AL_EPR-CONC-ENCAP-PE_3P
object underground_line_conductor {
    name UGCable_1/0_AL_EPR-CONC-ENCAP-PE_3P;
    outer_diameter 0.669290518897;
    conductor_gmr 0.01667552;
    conductor_diameter 0.52799107;
    conductor_resistance 0.27792611;
    neutral_gmr 0.01667552;
    neutral_resistance 0.27792611;
    neutral_diameter 0.52799107;
    neutral_strands 2;
}

// UGCable_1/0_AL_XLP-CONC-CIC_22KV_2P
object underground_line_conductor {
    name UGCable_1/0_AL_XLP-CONC-CIC_22KV_2P;
    outer_diameter 0.669290518897;
    conductor_gmr 0.01667552;
    conductor_diameter 0.52799107;
    conductor_resistance 0.27792611;
    neutral_gmr 0.01667552;
    neutral_resistance 0.27792611;
    neutral_diameter 0.52799107;
    neutral_strands 2;
}

// UGCable_750_CU_1C_XLP-PVC_22KV_3P&N
object underground_line_conductor {
    name UGCable_750_CU_1C_XLP-PVC_22KV_3P&N;
    outer_diameter 0.6692917;
    conductor_gmr 0.01667552;
    conductor_diameter 0.52799107;
    conductor_resistance 0.27792611;
    neutral_gmr 0.01667552;
    neutral_resistance 0.27792611;
    neutral_diameter 0.52799107;
    neutral_strands 2;
}

// UGCable_2_AL_PEC_22KV_2P&N
object underground_line_conductor {
    name UGCable_2_AL_PEC_22KV_2P&N;
    outer_diameter 0.669290518897;
    conductor_gmr 0.01667552;
    conductor_diameter 0.52799107;
    conductor_resistance 0.27792611;
    neutral_gmr 0.01667552;
    neutral_resistance 0.27792611;
    neutral_diameter 0.52799107;
    neutral_strands 2;
}

// UGCable_2_AL_XLP-PVC_22KV_3P
object underground_line_conductor {
    name UGCable_2_AL_XLP-PVC_22KV_3P;
    outer_diameter 0.6692917;
    conductor_gmr 0.01667552;
    conductor_diameter 0.52799107;
    conductor_resistance 0.27792611;
    neutral_gmr 0.01667552;
    neutral_resistance 0.27792611;
    neutral_diameter 0.52799107;
    neutral_strands 2;
}

// UGCable_DEFAULT
object underground_line_conductor {
    name UGCable_DEFAULT;
    outer_diameter 0.6692917;
    conductor_gmr 0.01667552;
    conductor_diameter 0.52799107;
    conductor_resistance 0.27792611;
    neutral_gmr 0.01667552;
    neutral_resistance 0.27792611;
    neutral_diameter 0.52799107;
    neutral_strands 2;
}

// UGCable_2_AL_XLP-CONC-ENCAP-PE_22KV_3P
object underground_line_conductor {
    name UGCable_2_AL_XLP-CONC-ENCAP-PE_22KV_3P;
    outer_diameter 0.6692917;
    conductor_gmr 0.01667552;
    conductor_diameter 0.52799107;
    conductor_resistance 0.27792611;
    neutral_gmr 0.01667552;
    neutral_resistance 0.27792611;
    neutral_diameter 0.52799107;
    neutral_strands 2;
}

// UGCable_500_CU_XLP-PVC_22KV_3P
object underground_line_conductor {
    name UGCable_500_CU_XLP-PVC_22KV_3P;
    outer_diameter 0.6692917;
    conductor_gmr 0.01667552;
    conductor_diameter 0.52799107;
    conductor_resistance 0.27792611;
    neutral_gmr 0.01667552;
    neutral_resistance 0.27792611;
    neutral_diameter 0.52799107;
    neutral_strands 2;
}

// UGCable_2_AL_XLP-PVC_22KV_2P&N
object underground_line_conductor {
    name UGCable_2_AL_XLP-PVC_22KV_2P&N;
    outer_diameter 0.669290518897;
    conductor_gmr 0.01667552;
    conductor_diameter 0.52799107;
    conductor_resistance 0.27792611;
    neutral_gmr 0.01667552;
    neutral_resistance 0.27792611;
    neutral_diameter 0.52799107;
    neutral_strands 2;
}

// UGCable_2_AL_XLP-CONC-CIC_22KV_1P
object underground_line_conductor {
    name UGCable_2_AL_XLP-CONC-CIC_22KV_1P;
    outer_diameter 0.669290518897;
    conductor_gmr 0.01667552;
    conductor_diameter 0.52799107;
    conductor_resistance 0.27792611;
    neutral_gmr 0.01667552;
    neutral_resistance 0.27792611;
    neutral_diameter 0.52799107;
    neutral_strands 2;
}

// UGCable_1/0_AL_XLP-CON-ENCP-PE_22KV_3P&N
object underground_line_conductor {
    name UGCable_1/0_AL_XLP-CON-ENCP-PE_22KV_3P&N;
    outer_diameter 0.6692917;
    conductor_gmr 0.01667552;
    conductor_diameter 0.52799107;
    conductor_resistance 0.27792611;
    neutral_gmr 0.01667552;
    neutral_resistance 0.27792611;
    neutral_diameter 0.52799107;
    neutral_strands 2;
}

// UGCable_2_AL_XLP-CONC-PVC_15KV_3P
object underground_line_conductor {
    name UGCable_2_AL_XLP-CONC-PVC_15KV_3P;
    outer_diameter 0.6692917;
    conductor_gmr 0.01667552;
    conductor_diameter 0.52799107;
    conductor_resistance 0.27792611;
    neutral_gmr 0.01667552;
    neutral_resistance 0.27792611;
    neutral_diameter 0.52799107;
    neutral_strands 2;
}

// UGCable_2_AL_PEC_22KV_2P
object underground_line_conductor {
    name UGCable_2_AL_PEC_22KV_2P;
    outer_diameter 0.669290518897;
    conductor_gmr 0.01667552;
    conductor_diameter 0.52799107;
    conductor_resistance 0.27792611;
    neutral_gmr 0.01667552;
    neutral_resistance 0.27792611;
    neutral_diameter 0.52799107;
    neutral_strands 2;
}

// UGCable_2_AL_PEC_22KV_3P&N
object underground_line_conductor {
    name UGCable_2_AL_PEC_22KV_3P&N;
    outer_diameter 0.669290518897;
    conductor_gmr 0.01667552;
    conductor_diameter 0.52799107;
    conductor_resistance 0.27792611;
    neutral_gmr 0.01667552;
    neutral_resistance 0.27792611;
    neutral_diameter 0.52799107;
    neutral_strands 2;
}

// UGCable_1/0_AL_EPR-CONC-ENCAP-PE_2P
object underground_line_conductor {
    name UGCable_1/0_AL_EPR-CONC-ENCAP-PE_2P;
    outer_diameter 0.669290518897;
    conductor_gmr 0.01667552;
    conductor_diameter 0.52799107;
    conductor_resistance 0.27792611;
    neutral_gmr 0.01667552;
    neutral_resistance 0.27792611;
    neutral_diameter 0.52799107;
    neutral_strands 2;
}

// UGCable_2_AL_XLP-CONC-PVC_22KV_2P
object underground_line_conductor {
    name UGCable_2_AL_XLP-CONC-PVC_22KV_2P;
    outer_diameter 0.669290518897;
    conductor_gmr 0.01667552;
    conductor_diameter 0.52799107;
    conductor_resistance 0.27792611;
    neutral_gmr 0.01667552;
    neutral_resistance 0.27792611;
    neutral_diameter 0.52799107;
    neutral_strands 2;
}

// UGCable_2_AL_XLP-PVC_22KV_2P
object underground_line_conductor {
    name UGCable_2_AL_XLP-PVC_22KV_2P;
    outer_diameter 0.669290518897;
    conductor_gmr 0.01667552;
    conductor_diameter 0.52799107;
    conductor_resistance 0.27792611;
    neutral_gmr 0.01667552;
    neutral_resistance 0.27792611;
    neutral_diameter 0.52799107;
    neutral_strands 2;
}

//*********************************************
// Line spacing objects
//*********************************************
// OHSpacing_HORIZONTAL_2P_88
object line_spacing {
    name OHSpacing_HORIZONTAL_2P_88;
    distance_AB 7.3332408792;
    distance_BC 7.3332408792;
    distance_AC 7.3332408792;
    distance_AN 9.9998784;
    distance_BN 9.9998784;
    distance_CN 9.9998784;
}

// OHSpacing_TRIANGULAR_1P_52
object line_spacing {
    name OHSpacing_TRIANGULAR_1P_52;
    distance_AB 4.33328064;
    distance_BC 4.33328064;
    distance_AC 4.33328064;
    distance_AN 5.8932616704;
    distance_BN 5.8932616704;
    distance_CN 5.8932616704;
}

// UGSpacing_2_AL_PEC_22KV_2P&N
object line_spacing {
    name UGSpacing_2_AL_PEC_22KV_2P&N;
    distance_AB 0.147636;
    distance_BC 0.0;
    distance_AC 0.0;
}

// OHSpacing_TRIANGULAR_1P_36
object line_spacing {
    name OHSpacing_TRIANGULAR_1P_36;
    distance_AB 2.99996352;
    distance_BC 2.99996352;
    distance_AC 2.99996352;
    distance_AN 4.0799503872;
    distance_BN 4.0799503872;
    distance_CN 4.0799503872;
}

// UGSpacing_2_AL_XLP-CONC-ENCAP-PE_22KV_3P
object line_spacing {
    name UGSpacing_2_AL_XLP-CONC-ENCAP-PE_22KV_3P;
    distance_AB 0.147636;
    distance_BC 0.147636;
    distance_AC 0.295272;
}

// UGSpacing_2_AL_XLP-CONC-CIC_22KV_1P
object line_spacing {
    name UGSpacing_2_AL_XLP-CONC-CIC_22KV_1P;
    distance_AB 0.0;
    distance_BC 0.0;
    distance_AC 0.0;
}

// UGSpacing_2_AL_XLP-PVC_22KV_2P
object line_spacing {
    name UGSpacing_2_AL_XLP-PVC_22KV_2P;
    distance_AB 0.147636;
    distance_BC 0.0;
    distance_AC 0.0;
}

// OHSpacing_TRIANGULAR_2P_36
object line_spacing {
    name OHSpacing_TRIANGULAR_2P_36;
    distance_AB 2.99996352;
    distance_BC 2.99996352;
    distance_AC 2.99996352;
    distance_AN 4.0799503872;
    distance_BN 4.0799503872;
    distance_CN 4.0799503872;
}

// OHSpacing_TRIANGULAR_2P_52
object line_spacing {
    name OHSpacing_TRIANGULAR_2P_52;
    distance_AB 4.33328064;
    distance_BC 4.33328064;
    distance_AC 4.33328064;
    distance_AN 4.3332773592;
    distance_BN 4.3332773592;
    distance_CN 4.3332773592;
}

// OHSpacing_TRIANGULAR_2P_39
object line_spacing {
    name OHSpacing_TRIANGULAR_2P_39;
    distance_AB 3.24996048;
    distance_BC 3.24996048;
    distance_AC 3.24996048;
    distance_AN 3.24996048;
    distance_BN 3.24996048;
    distance_CN 3.24996048;
}

// OHSpacing_HORIZONTAL_1P_56
object line_spacing {
    name OHSpacing_HORIZONTAL_1P_56;
    distance_AB 4.66660992;
    distance_BC 4.66660992;
    distance_AC 4.66660992;
    distance_AN 6.99991488;
    distance_BN 6.99991488;
    distance_CN 6.99991488;
}

// OHSpacing_HORIZONTAL_1P_52
object line_spacing {
    name OHSpacing_HORIZONTAL_1P_52;
    distance_AB 4.3332773592;
    distance_BC 4.3332773592;
    distance_AC 4.3332773592;
    distance_AN 6.6665888808;
    distance_BN 6.6665888808;
    distance_CN 6.6665888808;
}

// UGSpacing_1/0_AL_EPR-CONC-ENCAP-PE_3P
object line_spacing {
    name UGSpacing_1/0_AL_EPR-CONC-ENCAP-PE_3P;
    distance_AB 0.147636;
    distance_BC 0.147636;
    distance_AC 0.295272;
}

// UGSpacing_2_AL_XLP-CONC-PVC_15KV_3P
object line_spacing {
    name UGSpacing_2_AL_XLP-CONC-PVC_15KV_3P;
    distance_AB 0.147636;
    distance_BC 0.147636;
    distance_AC 0.295272;
}

// UGSpacing_2_AL_PEC_22KV_3P&N
object line_spacing {
    name UGSpacing_2_AL_PEC_22KV_3P&N;
    distance_AB 0.147636;
    distance_BC 0.147636;
    distance_AC 0.295272;
}

// OHSpacing_HORIZONTAL_2P_56
object line_spacing {
    name OHSpacing_HORIZONTAL_2P_56;
    distance_AB 4.66660992;
    distance_BC 4.66660992;
    distance_AC 4.66660992;
    distance_AN 6.99991488;
    distance_BN 6.99991488;
    distance_CN 6.99991488;
}

// OHSpacing_HORIZONTAL_2P_52
object line_spacing {
    name OHSpacing_HORIZONTAL_2P_52;
    distance_AB 4.3332773592;
    distance_BC 4.3332773592;
    distance_AC 4.3332773592;
    distance_AN 6.6665888808;
    distance_BN 6.6665888808;
    distance_CN 6.6665888808;
}

// UGSpacing_2_AL_PEC_22KV_2P
object line_spacing {
    name UGSpacing_2_AL_PEC_22KV_2P;
    distance_AB 0.147636;
    distance_BC 0.0;
    distance_AC 0.0;
}

// UGSpacing_1/0_AL_EPR-CONC-ENCAP-PE_1P
object line_spacing {
    name UGSpacing_1/0_AL_EPR-CONC-ENCAP-PE_1P;
    distance_AB 0.0;
    distance_BC 0.0;
    distance_AC 0.0;
}

// OHSpacing_HORIZONTAL_3P_88
object line_spacing {
    name OHSpacing_HORIZONTAL_3P_88;
    distance_AB 7.3332408792;
    distance_BC 7.3332408792;
    distance_AC 7.3332408792;
    distance_AN 9.9998784;
    distance_BN 9.9998784;
    distance_CN 9.9998784;
}

// UGSpacing_2_AL_PEC_22KV_3P
object line_spacing {
    name UGSpacing_2_AL_PEC_22KV_3P;
    distance_AB 0.147636;
    distance_BC 0.147636;
    distance_AC 0.295272;
}

// UGSpacing_1/0_AL_EPR-CONC-ENCAP-PE_2P&N
object line_spacing {
    name UGSpacing_1/0_AL_EPR-CONC-ENCAP-PE_2P&N;
    distance_AB 0.147636;
    distance_BC 0.0;
    distance_AC 0.0;
}

// UGSpacing_DEFAULT
object line_spacing {
    name UGSpacing_DEFAULT;
    distance_AB 0.147636;
    distance_BC 0.147636;
    distance_AC 0.295272;
}

// UGSpacing_1/0_AL_XLP-CON-ENCP-PE_22KV_2P
object line_spacing {
    name UGSpacing_1/0_AL_XLP-CON-ENCP-PE_22KV_2P;
    distance_AB 0.147636;
    distance_BC 0.0;
    distance_AC 0.0;
}

// UGSpacing_1/0_AL_XLP-CONC-CIC_22KV_2P
object line_spacing {
    name UGSpacing_1/0_AL_XLP-CONC-CIC_22KV_2P;
    distance_AB 0.147636;
    distance_BC 0.0;
    distance_AC 0.0;
}

// UGSpacing_2_AL_XLP-PVC_22KV_2P&N
object line_spacing {
    name UGSpacing_2_AL_XLP-PVC_22KV_2P&N;
    distance_AB 0.147636;
    distance_BC 0.0;
    distance_AC 0.0;
}

// UGSpacing_2_AL_XLP-CONC-CIC_22KV_2P
object line_spacing {
    name UGSpacing_2_AL_XLP-CONC-CIC_22KV_2P;
    distance_AB 0.147636;
    distance_BC 0.0;
    distance_AC 0.0;
}

// OHSpacing_HORIZONTAL_3P_52
object line_spacing {
    name OHSpacing_HORIZONTAL_3P_52;
    distance_AB 4.3332773592;
    distance_BC 4.3332773592;
    distance_AC 4.3332773592;
    distance_AN 6.6665888808;
    distance_BN 6.6665888808;
    distance_CN 6.6665888808;
}

// UGSpacing_1/0_AL_XLP-CONC-PVC_22KV_3P
object line_spacing {
    name UGSpacing_1/0_AL_XLP-CONC-PVC_22KV_3P;
    distance_AB 0.147636;
    distance_BC 0.147636;
    distance_AC 0.295272;
}

// UGSpacing_1/0_AL_EPR-CONC-ENCAP-PE_2P
object line_spacing {
    name UGSpacing_1/0_AL_EPR-CONC-ENCAP-PE_2P;
    distance_AB 0.147636;
    distance_BC 0.0;
    distance_AC 0.0;
}

// OHSpacing_HORIZONTAL_2P_36
object line_spacing {
    name OHSpacing_HORIZONTAL_2P_36;
    distance_AB 2.99996352;
    distance_BC 2.99996352;
    distance_AC 2.99996352;
    distance_AN 4.0799503872;
    distance_BN 4.0799503872;
    distance_CN 4.0799503872;
}

// OHSpacing_TRIANGULAR_2P_45
object line_spacing {
    name OHSpacing_TRIANGULAR_2P_45;
    distance_AB 3.7499544;
    distance_BC 3.7499544;
    distance_AC 3.7499544;
    distance_AN 3.7499544;
    distance_BN 3.7499544;
    distance_CN 3.7499544;
}

// UGSpacing_2_AL_XLP-CONC-PVC_22KV_2P
object line_spacing {
    name UGSpacing_2_AL_XLP-CONC-PVC_22KV_2P;
    distance_AB 0.147636;
    distance_BC 0.0;
    distance_AC 0.0;
}

// UGSpacing_2_AL_XLP-CONC-PVC_22KV_3P
object line_spacing {
    name UGSpacing_2_AL_XLP-CONC-PVC_22KV_3P;
    distance_AB 0.147636;
    distance_BC 0.147636;
    distance_AC 0.295272;
}

// UGSpacing_750_CU_1C_XLP-PVC_22KV_3P&N
object line_spacing {
    name UGSpacing_750_CU_1C_XLP-PVC_22KV_3P&N;
    distance_AB 0.147636;
    distance_BC 0.147636;
    distance_AC 0.295272;
}

// OHSpacing_HORIZONTAL_2P_39
object line_spacing {
    name OHSpacing_HORIZONTAL_2P_39;
    distance_AB 3.24996048;
    distance_BC 3.24996048;
    distance_AC 3.24996048;
    distance_AN 3.24996048;
    distance_BN 3.24996048;
    distance_CN 3.24996048;
}

// OHSpacing_VERTICAL_2P_18
object line_spacing {
    name OHSpacing_VERTICAL_2P_18;
    distance_AB 1.49998176;
    distance_BC 1.49998176;
    distance_AC 1.49998176;
    distance_AN 1.49998176;
    distance_BN 1.49998176;
    distance_CN 1.49998176;
}

// UGSpacing_1/0_AL_XLP-CON-ENCP-PE_22KV_3P&N
object line_spacing {
    name UGSpacing_1/0_AL_XLP-CON-ENCP-PE_22KV_3P&N;
    distance_AB 0.147636;
    distance_BC 0.147636;
    distance_AC 0.295272;
}

// OHSpacing_HORIZONTAL_2P_60
object line_spacing {
    name OHSpacing_HORIZONTAL_2P_60;
    distance_AB 4.9999392;
    distance_BC 4.9999392;
    distance_AC 4.9999392;
    distance_AN 6.799917312;
    distance_BN 6.799917312;
    distance_CN 6.799917312;
}

// OHSpacing_HORIZONTAL_2P_24
object line_spacing {
    name OHSpacing_HORIZONTAL_2P_24;
    distance_AB 1.99997568;
    distance_BC 1.99997568;
    distance_AC 1.99997568;
    distance_AN 2.7199669248;
    distance_BN 2.7199669248;
    distance_CN 2.7199669248;
}

// UGSpacing_1/0_AL_XLP-CON-ENCP-PE_22KV_3P
object line_spacing {
    name UGSpacing_1/0_AL_XLP-CON-ENCP-PE_22KV_3P;
    distance_AB 0.147636;
    distance_BC 0.147636;
    distance_AC 0.295272;
}

// OHSpacing_HORIZONTAL_1P_88
object line_spacing {
    name OHSpacing_HORIZONTAL_1P_88;
    distance_AB 7.3332408792;
    distance_BC 7.3332408792;
    distance_AC 7.3332408792;
    distance_AN 7.3332408792;
    distance_BN 7.3332408792;
    distance_CN 7.3332408792;
}

// UGSpacing_2_AL_XLP-PVC_22KV_3P
object line_spacing {
    name UGSpacing_2_AL_XLP-PVC_22KV_3P;
    distance_AB 0.147636;
    distance_BC 0.147636;
    distance_AC 0.295272;
}

// UGSpacing_700_AL_XLP-CONC-PVC_22KV_3P
object line_spacing {
    name UGSpacing_700_AL_XLP-CONC-PVC_22KV_3P;
    distance_AB 0.147636;
    distance_BC 0.147636;
    distance_AC 0.295272;
}

// UGSpacing_500_CU_XLP-PVC_22KV_3P
object line_spacing {
    name UGSpacing_500_CU_XLP-PVC_22KV_3P;
    distance_AB 0.147636;
    distance_BC 0.147636;
    distance_AC 0.295272;
}

//*********************************************
// Line Config objects
//*********************************************
// L_900060055_LineConfig
object line_configuration {
    name L_900060055_LineConfig;
    conductor_B OHCond_4_ACSR_C;
    conductor_C OHCond_4_ACSR_C;
    spacing OHSpacing_HORIZONTAL_2P_88;
}

// L_900060097_LineConfig
object line_configuration {
    name L_900060097_LineConfig;
    conductor_B OHCond_4_ACSR_C;
    conductor_C OHCond_4_ACSR_C;
    spacing OHSpacing_HORIZONTAL_2P_60;
}

// L_900111046_LineConfig
object line_configuration {
    name L_900111046_LineConfig;
    conductor_A OHCond_4_ACSR_C;
    conductor_B OHCond_4_ACSR_C;
    spacing OHSpacing_HORIZONTAL_2P_88;
}

// L_900048319_LineConfig
object line_configuration {
    name L_900048319_LineConfig;
    conductor_A OHCond_6_CU_I;
    conductor_B OHCond_6_CU_I;
    spacing OHSpacing_HORIZONTAL_2P_52;
}

// L_900060250_LineConfig
object line_configuration {
    name L_900060250_LineConfig;
    conductor_B OHCond_4_CU_C;
    conductor_C OHCond_4_CU_C;
    spacing OHSpacing_HORIZONTAL_2P_88;
}

// L_900047531_LineConfig
object line_configuration {
    name L_900047531_LineConfig;
    conductor_C OHCond_4_ACSR_C;
    conductor_N OHCond_4_ACSR_C;
    spacing OHSpacing_HORIZONTAL_1P_88;
}

// L_900081820_LineConfig
object line_configuration {
    name L_900081820_LineConfig;
    conductor_A OHCond_1/0_AAC_I;
    conductor_B OHCond_1/0_AAC_I;
    spacing OHSpacing_HORIZONTAL_2P_52;
}

// L_900006320_LineConfig
object line_configuration {
    name L_900006320_LineConfig;
    conductor_C OHCond_4_ACSR_C;
    spacing OHSpacing_HORIZONTAL_1P_52;
}

// L_900057543_LineConfig
object line_configuration {
    name L_900057543_LineConfig;
    conductor_A OHCond_6_CU_I;
    conductor_B OHCond_6_CU_I;
    spacing OHSpacing_HORIZONTAL_2P_88;
}

// L_900001913_LineConfig
object line_configuration {
    name L_900001913_LineConfig;
    conductor_A OHCond_4/0_AAC_C;
    conductor_B OHCond_4/0_AAC_C;
    conductor_C OHCond_4/0_AAC_C;
    spacing OHSpacing_HORIZONTAL_3P_52;
}

// L_900059805_LineConfig
object line_configuration {
    name L_900059805_LineConfig;
    conductor_B OHCond_4_CU_C;
    conductor_C OHCond_4_CU_C;
    spacing OHSpacing_HORIZONTAL_2P_88;
}

// L_900081586_LineConfig
object line_configuration {
    name L_900081586_LineConfig;
    conductor_A OHCond_4_ACSR_I;
    conductor_B OHCond_4_ACSR_I;
    spacing OHSpacing_HORIZONTAL_2P_24;
}

// L_900057732_LineConfig
object line_configuration {
    name L_900057732_LineConfig;
    conductor_A OHCond_6_CU_I;
    conductor_B OHCond_6_CU_I;
    conductor_C OHCond_6_CU_I;
    spacing OHSpacing_HORIZONTAL_3P_52;
}

// L_900055211_LineConfig
object line_configuration {
    name L_900055211_LineConfig;
    conductor_B OHCond_4_CU_C;
    conductor_C OHCond_4_CU_C;
    spacing OHSpacing_HORIZONTAL_2P_88;
}

// L_900120103_LineConfig
object line_configuration {
    name L_900120103_LineConfig;
    conductor_B OHCond_6_CU_C;
    conductor_C OHCond_6_CU_C;
    conductor_N OHCond_1/0_AAC_C;
    spacing OHSpacing_TRIANGULAR_2P_36;
}

// L_900060165_LineConfig
object line_configuration {
    name L_900060165_LineConfig;
    conductor_B OHCond_4_ACSR_C;
    conductor_C OHCond_4_ACSR_C;
    spacing OHSpacing_HORIZONTAL_2P_52;
}

// L_900006331_LineConfig
object line_configuration {
    name L_900006331_LineConfig;
    conductor_B OHCond_4_CU_C;
    conductor_C OHCond_4_CU_C;
    spacing OHSpacing_HORIZONTAL_2P_88;
}

// L_900081552_LineConfig
object line_configuration {
    name L_900081552_LineConfig;
    conductor_B OHCond_4_ACSR_I;
    conductor_C OHCond_4_ACSR_I;
    spacing OHSpacing_HORIZONTAL_2P_56;
}

// L_900002238_LineConfig
object line_configuration {
    name L_900002238_LineConfig;
    conductor_A OHCond_6_CU_I;
    conductor_B OHCond_6_CU_I;
    spacing OHSpacing_HORIZONTAL_2P_88;
}

// L_900002014_LineConfig
object line_configuration {
    name L_900002014_LineConfig;
    conductor_B OHCond_4_CU_C;
    conductor_C OHCond_4_CU_C;
    spacing OHSpacing_HORIZONTAL_2P_39;
}

// L_900057717_LineConfig
object line_configuration {
    name L_900057717_LineConfig;
    conductor_A OHCond_6_CU_I;
    conductor_B OHCond_6_CU_I;
    spacing OHSpacing_HORIZONTAL_2P_88;
}

// L_900057559_LineConfig
object line_configuration {
    name L_900057559_LineConfig;
    conductor_C OHCond_4_ACSR_C;
    conductor_N OHCond_4_ACSR_C;
    spacing OHSpacing_HORIZONTAL_1P_88;
}

// L_900057668_LineConfig
object line_configuration {
    name L_900057668_LineConfig;
    conductor_A OHCond_4_CU_I;
    conductor_B OHCond_4_CU_I;
    conductor_C OHCond_4_CU_I;
    spacing OHSpacing_HORIZONTAL_3P_52;
}

// L_900059326_LineConfig
object line_configuration {
    name L_900059326_LineConfig;
    conductor_A OHCond_4_ACSR_I;
    conductor_B OHCond_4_ACSR_I;
    spacing OHSpacing_HORIZONTAL_2P_56;
}

// L_900061708_LineConfig
object line_configuration {
    name L_900061708_LineConfig;
    conductor_A OHCond_4/0_AAC_I;
    conductor_B OHCond_4/0_AAC_I;
    conductor_C OHCond_4/0_AAC_I;
    spacing OHSpacing_HORIZONTAL_3P_52;
}

// L_900023491_LineConfig
object line_configuration {
    name L_900023491_LineConfig;
    conductor_A OHCond_397_AAC_I;
    conductor_B OHCond_397_AAC_I;
    conductor_C OHCond_397_AAC_I;
    spacing OHSpacing_HORIZONTAL_3P_52;
}

// L_900064358_LineConfig
object line_configuration {
    name L_900064358_LineConfig;
    conductor_B OHCond_4_CU_C;
    conductor_C OHCond_4_CU_C;
    spacing OHSpacing_HORIZONTAL_2P_88;
}

// L_900020975_LineConfig
object line_configuration {
    name L_900020975_LineConfig;
    conductor_A OHCond_715_AAC_I;
    conductor_B OHCond_715_AAC_I;
    conductor_C OHCond_715_AAC_I;
    spacing OHSpacing_HORIZONTAL_3P_88;
}

// L_900081542_LineConfig
object line_configuration {
    name L_900081542_LineConfig;
    conductor_A OHCond_1/0_AAC_I;
    conductor_B OHCond_1/0_AAC_I;
    conductor_C OHCond_1/0_AAC_I;
    spacing OHSpacing_HORIZONTAL_3P_52;
}

// L_900059867_LineConfig
object line_configuration {
    name L_900059867_LineConfig;
    conductor_B OHCond_4_CU_C;
    conductor_C OHCond_4_CU_C;
    spacing OHSpacing_HORIZONTAL_2P_88;
}

// L_900001918_LineConfig
object line_configuration {
    name L_900001918_LineConfig;
    conductor_A OHCond_4/0_AAC_C;
    conductor_B OHCond_4/0_AAC_C;
    conductor_C OHCond_4/0_AAC_C;
    spacing OHSpacing_HORIZONTAL_3P_52;
}

// L_900059325_LineConfig
object line_configuration {
    name L_900059325_LineConfig;
    conductor_A OHCond_397_AAC_I;
    conductor_B OHCond_397_AAC_I;
    conductor_C OHCond_397_AAC_I;
    spacing OHSpacing_HORIZONTAL_3P_52;
}

// L_900059271_LineConfig
object line_configuration {
    name L_900059271_LineConfig;
    conductor_A OHCond_4_ACSR_I;
    conductor_B OHCond_4_ACSR_I;
    spacing OHSpacing_HORIZONTAL_2P_88;
}

// L_900012011_LineConfig
object line_configuration {
    name L_900012011_LineConfig;
    conductor_A OHCond_6_CU_I;
    conductor_B OHCond_6_CU_I;
    conductor_C OHCond_6_CU_I;
    spacing OHSpacing_HORIZONTAL_3P_52;
}

// L_900055556_LineConfig
object line_configuration {
    name L_900055556_LineConfig;
    conductor_A OHCond_4_ACSR_C;
    conductor_B OHCond_4_ACSR_C;
    spacing OHSpacing_HORIZONTAL_2P_52;
}

// L_900023904_LineConfig
object line_configuration {
    name L_900023904_LineConfig;
    conductor_A OHCond_397_AAC_I;
    conductor_B OHCond_397_AAC_I;
    conductor_C OHCond_397_AAC_I;
    spacing OHSpacing_HORIZONTAL_3P_52;
}

// L_900060081_LineConfig
object line_configuration {
    name L_900060081_LineConfig;
    conductor_B OHCond_4_ACSR_C;
    conductor_C OHCond_4_ACSR_C;
    spacing OHSpacing_HORIZONTAL_2P_88;
}

// L_900057699_LineConfig
object line_configuration {
    name L_900057699_LineConfig;
    conductor_A OHCond_4_ACSR_I;
    spacing OHSpacing_TRIANGULAR_1P_52;
}

// L_900060109_LineConfig
object line_configuration {
    name L_900060109_LineConfig;
    conductor_B OHCond_4_CU_C;
    conductor_C OHCond_4_CU_C;
    spacing OHSpacing_HORIZONTAL_2P_88;
}

// L_900088387_LineConfig
object line_configuration {
    name L_900088387_LineConfig;
    conductor_A OHCond_1/0_AAC_I;
    conductor_B OHCond_1/0_AAC_I;
    conductor_C OHCond_1/0_AAC_I;
    spacing OHSpacing_HORIZONTAL_3P_52;
}

// L_900057830_LineConfig
object line_configuration {
    name L_900057830_LineConfig;
    conductor_A OHCond_715_AAC_I;
    conductor_B OHCond_715_AAC_I;
    conductor_C OHCond_715_AAC_I;
    spacing OHSpacing_HORIZONTAL_3P_88;
}

// L_900060122_LineConfig
object line_configuration {
    name L_900060122_LineConfig;
    conductor_B OHCond_4_ACSR_C;
    conductor_C OHCond_4_ACSR_C;
    spacing OHSpacing_TRIANGULAR_2P_45;
}

// L_900057534_LineConfig
object line_configuration {
    name L_900057534_LineConfig;
    conductor_A OHCond_4_CU_I;
    conductor_B OHCond_4_CU_I;
    conductor_C OHCond_4_CU_I;
    spacing OHSpacing_HORIZONTAL_3P_52;
}

// L_900059851_LineConfig
object line_configuration {
    name L_900059851_LineConfig;
    conductor_B OHCond_4_CU_C;
    conductor_C OHCond_4_CU_C;
    spacing OHSpacing_HORIZONTAL_2P_88;
}

// L_900064396_LineConfig
object line_configuration {
    name L_900064396_LineConfig;
    conductor_B OHCond_4_CU_C;
    conductor_C OHCond_4_CU_C;
    spacing OHSpacing_HORIZONTAL_2P_88;
}

// L_900023493_LineConfig
object line_configuration {
    name L_900023493_LineConfig;
    conductor_A OHCond_397_AAC_I;
    conductor_B OHCond_397_AAC_I;
    conductor_C OHCond_397_AAC_I;
    spacing OHSpacing_HORIZONTAL_3P_52;
}

// L_900111044_LineConfig
object line_configuration {
    name L_900111044_LineConfig;
    conductor_A OHCond_4_ACSR_C;
    conductor_B OHCond_4_ACSR_C;
    spacing OHSpacing_HORIZONTAL_2P_88;
}

// L_900018097_LineConfig
object line_configuration {
    name L_900018097_LineConfig;
    conductor_B OHCond_4_ACSR_C;
    conductor_C OHCond_4_ACSR_C;
    spacing OHSpacing_HORIZONTAL_2P_56;
}

// L_900001998_LineConfig
object line_configuration {
    name L_900001998_LineConfig;
    conductor_B OHCond_4_CU_C;
    conductor_C OHCond_4_CU_C;
    spacing OHSpacing_HORIZONTAL_2P_88;
}

// L_900044684_LineConfig
object line_configuration {
    name L_900044684_LineConfig;
    conductor_B OHCond_4_ACSR_C;
    conductor_C OHCond_4_ACSR_C;
    spacing OHSpacing_HORIZONTAL_2P_52;
}

// L_900061717_LineConfig
object line_configuration {
    name L_900061717_LineConfig;
    conductor_A OHCond_6_CU_I;
    conductor_B OHCond_6_CU_I;
    spacing OHSpacing_HORIZONTAL_2P_56;
}

// L_900057511_LineConfig
object line_configuration {
    name L_900057511_LineConfig;
    conductor_A OHCond_4_ACSR_I;
    conductor_B OHCond_4_ACSR_I;
    spacing OHSpacing_TRIANGULAR_2P_52;
}

// L_900081726_LineConfig
object line_configuration {
    name L_900081726_LineConfig;
    conductor_A OHCond_4_ACSR_I;
    conductor_B OHCond_4_ACSR_I;
    spacing OHSpacing_HORIZONTAL_2P_56;
}

// L_900060539_LineConfig
object line_configuration {
    name L_900060539_LineConfig;
    conductor_A OHCond_6_CU_I;
    conductor_B OHCond_6_CU_I;
    conductor_N OHCond_6_CU_I;
    spacing OHSpacing_HORIZONTAL_2P_88;
}

// L_900023205_LineConfig
object line_configuration {
    name L_900023205_LineConfig;
    conductor_A OHCond_1/0_AAC_I;
    conductor_B OHCond_1/0_AAC_I;
    conductor_C OHCond_1/0_AAC_I;
    spacing OHSpacing_HORIZONTAL_3P_52;
}

// L_900023208_LineConfig
object line_configuration {
    name L_900023208_LineConfig;
    conductor_A OHCond_1/0_AAC_I;
    conductor_B OHCond_1/0_AAC_I;
    conductor_C OHCond_1/0_AAC_I;
    spacing OHSpacing_HORIZONTAL_3P_52;
}

// L_900018060_LineConfig
object line_configuration {
    name L_900018060_LineConfig;
    conductor_A OHCond_4_ACSR_I;
    conductor_B OHCond_4_ACSR_I;
    spacing OHSpacing_HORIZONTAL_2P_88;
}

// L_900117021_LineConfig
object line_configuration {
    name L_900117021_LineConfig;
    conductor_B OHCond_4_ACSR_C;
    conductor_C OHCond_4_ACSR_C;
    spacing OHSpacing_HORIZONTAL_2P_88;
}

// L_900082759_LineConfig
object line_configuration {
    name L_900082759_LineConfig;
    conductor_A OHCond_4_ACSR_I;
    conductor_B OHCond_4_ACSR_I;
    conductor_N OHCond_4_ACSR_I;
    spacing OHSpacing_HORIZONTAL_2P_56;
}

// L_900056465_LineConfig
object line_configuration {
    name L_900056465_LineConfig;
    conductor_C OHCond_4_CU_C;
    conductor_N OHCond_4_CU_C;
    spacing OHSpacing_HORIZONTAL_1P_88;
}

// L_900023490_LineConfig
object line_configuration {
    name L_900023490_LineConfig;
    conductor_A OHCond_397_AAC_I;
    conductor_B OHCond_397_AAC_I;
    conductor_C OHCond_397_AAC_I;
    spacing OHSpacing_HORIZONTAL_3P_52;
}

// L_900110304_LineConfig
object line_configuration {
    name L_900110304_LineConfig;
    conductor_A OHCond_6_CU_C;
    conductor_B OHCond_6_CU_C;
    spacing OHSpacing_HORIZONTAL_2P_52;
}

// L_900060452_LineConfig
object line_configuration {
    name L_900060452_LineConfig;
    conductor_B OHCond_4_CU_C;
    conductor_C OHCond_4_CU_C;
    spacing OHSpacing_HORIZONTAL_2P_39;
}

// L_900060455_LineConfig
object line_configuration {
    name L_900060455_LineConfig;
    conductor_B OHCond_4_CU_C;
    conductor_C OHCond_4_CU_C;
    spacing OHSpacing_HORIZONTAL_2P_39;
}

// L_900055008_LineConfig
object line_configuration {
    name L_900055008_LineConfig;
    conductor_A OHCond_4_CU_I;
    conductor_B OHCond_4_CU_I;
    conductor_C OHCond_4_CU_I;
    spacing OHSpacing_HORIZONTAL_3P_52;
}

// L_900059971_LineConfig
object line_configuration {
    name L_900059971_LineConfig;
    conductor_B OHCond_4_ACSR_C;
    conductor_C OHCond_4_ACSR_C;
    spacing OHSpacing_HORIZONTAL_2P_56;
}

// L_900132253_LineConfig
object line_configuration {
    name L_900132253_LineConfig;
    conductor_A OHCond_4_ACSR_I;
    conductor_B OHCond_4_ACSR_I;
    conductor_C OHCond_4_ACSR_I;
    conductor_N OHCond_4_ACSR_I;
    spacing OHSpacing_HORIZONTAL_3P_52;
}

// L_900057719_LineConfig
object line_configuration {
    name L_900057719_LineConfig;
    conductor_A OHCond_4_CU_I;
    conductor_B OHCond_4_CU_I;
    conductor_C OHCond_4_CU_I;
    spacing OHSpacing_HORIZONTAL_3P_52;
}

// L_900064376_LineConfig
object line_configuration {
    name L_900064376_LineConfig;
    conductor_B OHCond_4_CU_C;
    conductor_C OHCond_4_CU_C;
    spacing OHSpacing_HORIZONTAL_2P_88;
}

// L_900059254_LineConfig
object line_configuration {
    name L_900059254_LineConfig;
    conductor_B OHCond_6_CU_C;
    conductor_C OHCond_6_CU_C;
    conductor_N OHCond_6_CU_C;
    spacing OHSpacing_HORIZONTAL_2P_88;
}

// L_900061622_LineConfig
object line_configuration {
    name L_900061622_LineConfig;
    conductor_A OHCond_397_AAC_I;
    conductor_B OHCond_397_AAC_I;
    conductor_C OHCond_397_AAC_I;
    spacing OHSpacing_HORIZONTAL_3P_52;
}

// L_900060474_LineConfig
object line_configuration {
    name L_900060474_LineConfig;
    conductor_A OHCond_4/0_AAC_I;
    conductor_B OHCond_4/0_AAC_I;
    conductor_C OHCond_4/0_AAC_I;
    spacing OHSpacing_HORIZONTAL_3P_52;
}

// L_900060182_LineConfig
object line_configuration {
    name L_900060182_LineConfig;
    conductor_B OHCond_4_ACSR_C;
    conductor_C OHCond_4_ACSR_C;
    spacing OHSpacing_HORIZONTAL_2P_52;
}

// L_900057560_LineConfig
object line_configuration {
    name L_900057560_LineConfig;
    conductor_C OHCond_4_ACSR_C;
    conductor_N OHCond_4_ACSR_C;
    spacing OHSpacing_HORIZONTAL_1P_88;
}

// L_900110303_LineConfig
object line_configuration {
    name L_900110303_LineConfig;
    conductor_A OHCond_6_CU_C;
    conductor_B OHCond_6_CU_C;
    conductor_C OHCond_6_CU_C;
    spacing OHSpacing_HORIZONTAL_3P_52;
}

// L_900057528_LineConfig
object line_configuration {
    name L_900057528_LineConfig;
    conductor_A OHCond_4_CU_I;
    conductor_B OHCond_4_CU_I;
    conductor_C OHCond_4_CU_I;
    spacing OHSpacing_HORIZONTAL_3P_52;
}

// L_900120768_LineConfig
object line_configuration {
    name L_900120768_LineConfig;
    conductor_B OHCond_1/0_AAC_C;
    conductor_C OHCond_1/0_AAC_C;
    conductor_N OHCond_1/0_AAC_C;
    spacing OHSpacing_HORIZONTAL_2P_88;
}

// L_900057510_LineConfig
object line_configuration {
    name L_900057510_LineConfig;
    conductor_A OHCond_4_ACSR_I;
    conductor_B OHCond_4_ACSR_I;
    spacing OHSpacing_TRIANGULAR_2P_52;
}

// L_900060531_LineConfig
object line_configuration {
    name L_900060531_LineConfig;
    conductor_A OHCond_397_AAC_I;
    conductor_B OHCond_397_AAC_I;
    conductor_C OHCond_397_AAC_I;
    spacing OHSpacing_HORIZONTAL_3P_52;
}

// L_900057789_LineConfig
object line_configuration {
    name L_900057789_LineConfig;
    conductor_A OHCond_4_CU_I;
    conductor_B OHCond_4_CU_I;
    conductor_C OHCond_4_CU_I;
    spacing OHSpacing_HORIZONTAL_3P_52;
}

// L_900114557_LineConfig
object line_configuration {
    name L_900114557_LineConfig;
    conductor_A OHCond_715_AAC_I;
    conductor_B OHCond_715_AAC_I;
    conductor_C OHCond_715_AAC_I;
    spacing OHSpacing_HORIZONTAL_3P_52;
}

// L_900032579_LineConfig
object line_configuration {
    name L_900032579_LineConfig;
    conductor_A OHCond_4/0_AAC_C;
    conductor_B OHCond_4/0_AAC_C;
    conductor_C OHCond_4/0_AAC_C;
    spacing OHSpacing_HORIZONTAL_3P_52;
}

// L_900060203_LineConfig
object line_configuration {
    name L_900060203_LineConfig;
    conductor_B OHCond_4_ACSR_C;
    conductor_C OHCond_4_ACSR_C;
    spacing OHSpacing_HORIZONTAL_2P_56;
}

// L_900060559_LineConfig
object line_configuration {
    name L_900060559_LineConfig;
    conductor_A OHCond_397_AAC_I;
    conductor_B OHCond_397_AAC_I;
    conductor_C OHCond_397_AAC_I;
    spacing OHSpacing_HORIZONTAL_3P_52;
}

// L_900061640_LineConfig
object line_configuration {
    name L_900061640_LineConfig;
    conductor_A OHCond_6_CU_I;
    conductor_B OHCond_6_CU_I;
    conductor_N OHCond_6_CU_I;
    spacing OHSpacing_HORIZONTAL_2P_88;
}

// L_900057557_LineConfig
object line_configuration {
    name L_900057557_LineConfig;
    conductor_B OHCond_1/0_AAC_C;
    conductor_C OHCond_1/0_AAC_C;
    conductor_N OHCond_1/0_AAC_C;
    spacing OHSpacing_TRIANGULAR_2P_36;
}

// L_900082738_LineConfig
object line_configuration {
    name L_900082738_LineConfig;
    conductor_A OHCond_1/0_AAC_I;
    conductor_B OHCond_1/0_AAC_I;
    conductor_C OHCond_1/0_AAC_I;
    spacing OHSpacing_HORIZONTAL_3P_52;
}

// L_900057535_LineConfig
object line_configuration {
    name L_900057535_LineConfig;
    conductor_A OHCond_4_CU_I;
    conductor_B OHCond_4_CU_I;
    conductor_C OHCond_4_CU_I;
    spacing OHSpacing_HORIZONTAL_3P_52;
}

// L_900061694_LineConfig
object line_configuration {
    name L_900061694_LineConfig;
    conductor_A OHCond_4_ACSR_I;
    conductor_B OHCond_4_ACSR_I;
    spacing OHSpacing_HORIZONTAL_2P_88;
}

// L_900056470_LineConfig
object line_configuration {
    name L_900056470_LineConfig;
    conductor_C OHCond_4_CU_C;
    conductor_N OHCond_4_CU_C;
    spacing OHSpacing_HORIZONTAL_1P_88;
}

// L_900082785_LineConfig
object line_configuration {
    name L_900082785_LineConfig;
    conductor_A OHCond_4_ACSR_I;
    conductor_B OHCond_4_ACSR_I;
    conductor_N OHCond_4_ACSR_I;
    spacing OHSpacing_HORIZONTAL_2P_56;
}

// L_900008124_LineConfig
object line_configuration {
    name L_900008124_LineConfig;
    conductor_A OHCond_4_ACSR_I;
    conductor_C OHCond_4_ACSR_I;
    spacing OHSpacing_HORIZONTAL_2P_88;
}

// L_900060217_LineConfig
object line_configuration {
    name L_900060217_LineConfig;
    conductor_B OHCond_6_CU_C;
    conductor_C OHCond_6_CU_C;
    spacing OHSpacing_HORIZONTAL_2P_88;
}

// L_900046459_LineConfig
object line_configuration {
    name L_900046459_LineConfig;
    conductor_B OHCond_4_ACSR_C;
    conductor_C OHCond_4_ACSR_C;
    spacing OHSpacing_HORIZONTAL_2P_39;
}

// L_900110748_LineConfig
object line_configuration {
    name L_900110748_LineConfig;
    conductor_B OHCond_4_ACSR_C;
    conductor_C OHCond_4_ACSR_C;
    spacing OHSpacing_HORIZONTAL_2P_39;
}

// L_900060469_LineConfig
object line_configuration {
    name L_900060469_LineConfig;
    conductor_A OHCond_4/0_AAC_C;
    conductor_B OHCond_4/0_AAC_C;
    conductor_C OHCond_4/0_AAC_C;
    spacing OHSpacing_HORIZONTAL_3P_52;
}

// L_900060480_LineConfig
object line_configuration {
    name L_900060480_LineConfig;
    conductor_A OHCond_397_AAC_I;
    conductor_B OHCond_397_AAC_I;
    conductor_C OHCond_397_AAC_I;
    spacing OHSpacing_HORIZONTAL_3P_52;
}

// L_900064355_LineConfig
object line_configuration {
    name L_900064355_LineConfig;
    conductor_B OHCond_4_CU_C;
    conductor_C OHCond_4_CU_C;
    spacing OHSpacing_HORIZONTAL_2P_88;
}

// L_900057669_LineConfig
object line_configuration {
    name L_900057669_LineConfig;
    conductor_A OHCond_4_CU_I;
    conductor_B OHCond_4_CU_I;
    conductor_C OHCond_4_CU_I;
    spacing OHSpacing_HORIZONTAL_3P_52;
}

// L_900051570_LineConfig
object line_configuration {
    name L_900051570_LineConfig;
    conductor_B OHCond_4_CU_C;
    conductor_C OHCond_4_CU_C;
    spacing OHSpacing_HORIZONTAL_2P_88;
}

// L_900060073_LineConfig
object line_configuration {
    name L_900060073_LineConfig;
    conductor_B OHCond_4_CU_C;
    conductor_C OHCond_4_CU_C;
    spacing OHSpacing_HORIZONTAL_2P_88;
}

// L_900064350_LineConfig
object line_configuration {
    name L_900064350_LineConfig;
    conductor_B OHCond_4_CU_C;
    conductor_C OHCond_4_CU_C;
    spacing OHSpacing_HORIZONTAL_2P_39;
}

// L_900061714_LineConfig
object line_configuration {
    name L_900061714_LineConfig;
    conductor_A OHCond_6_CU_I;
    conductor_B OHCond_6_CU_I;
    spacing OHSpacing_HORIZONTAL_2P_56;
}

// L_900057704_LineConfig
object line_configuration {
    name L_900057704_LineConfig;
    conductor_A OHCond_4_CU_I;
    conductor_B OHCond_4_CU_I;
    conductor_C OHCond_4_CU_I;
    spacing OHSpacing_HORIZONTAL_3P_52;
}

// L_900060436_LineConfig
object line_configuration {
    name L_900060436_LineConfig;
    conductor_B OHCond_4_ACSR_C;
    conductor_C OHCond_4_ACSR_C;
    spacing OHSpacing_HORIZONTAL_2P_88;
}

// L_900022488_LineConfig
object line_configuration {
    name L_900022488_LineConfig;
    conductor_C OHCond_4_ACSR_C;
    conductor_N OHCond_4_ACSR_C;
    spacing OHSpacing_HORIZONTAL_1P_88;
}

// L_900034303_LineConfig
object line_configuration {
    name L_900034303_LineConfig;
    conductor_B OHCond_4_ACSR_C;
    conductor_C OHCond_4_ACSR_C;
    spacing OHSpacing_TRIANGULAR_2P_45;
}

// L_900012006_LineConfig
object line_configuration {
    name L_900012006_LineConfig;
    conductor_A OHCond_397_AAC_I;
    conductor_B OHCond_397_AAC_I;
    conductor_C OHCond_397_AAC_I;
    spacing OHSpacing_HORIZONTAL_3P_52;
}

// L_900081535_LineConfig
object line_configuration {
    name L_900081535_LineConfig;
    conductor_A OHCond_4/0_AAC_I;
    conductor_B OHCond_4/0_AAC_I;
    conductor_C OHCond_4/0_AAC_I;
    spacing OHSpacing_HORIZONTAL_3P_52;
}

// L_600066602_LineConfig
object line_configuration {
    name L_600066602_LineConfig;
    conductor_C OHCond_4_CU_C;
    conductor_N OHCond_4_CU_C;
    spacing OHSpacing_HORIZONTAL_1P_88;
}

// L_900023137_LineConfig
object line_configuration {
    name L_900023137_LineConfig;
    conductor_A OHCond_4/0_AAC_I;
    conductor_B OHCond_4/0_AAC_I;
    conductor_C OHCond_4/0_AAC_I;
    spacing OHSpacing_HORIZONTAL_3P_52;
}

// L_900060063_LineConfig
object line_configuration {
    name L_900060063_LineConfig;
    conductor_B OHCond_4_ACSR_C;
    conductor_C OHCond_4_ACSR_C;
    spacing OHSpacing_HORIZONTAL_2P_88;
}

// L_900046680_LineConfig
object line_configuration {
    name L_900046680_LineConfig;
    conductor_B OHCond_4_ACSR_C;
    conductor_C OHCond_4_ACSR_C;
    spacing OHSpacing_HORIZONTAL_2P_60;
}

// L_900061527_LineConfig
object line_configuration {
    name L_900061527_LineConfig;
    conductor_C OHCond_4_ACSR_C;
    spacing OHSpacing_HORIZONTAL_1P_52;
}

// L_900056474_LineConfig
object line_configuration {
    name L_900056474_LineConfig;
    conductor_C OHCond_4_CU_C;
    conductor_N OHCond_4_CU_C;
    spacing OHSpacing_HORIZONTAL_1P_88;
}

// L_900060263_LineConfig
object line_configuration {
    name L_900060263_LineConfig;
    conductor_B OHCond_4_CU_C;
    conductor_C OHCond_4_CU_C;
    spacing OHSpacing_HORIZONTAL_2P_88;
}

// L_900059318_LineConfig
object line_configuration {
    name L_900059318_LineConfig;
    conductor_A OHCond_397_AAC_I;
    conductor_B OHCond_397_AAC_I;
    conductor_C OHCond_397_AAC_I;
    spacing OHSpacing_HORIZONTAL_3P_52;
}

// L_900060215_LineConfig
object line_configuration {
    name L_900060215_LineConfig;
    conductor_B OHCond_6_CU_C;
    conductor_C OHCond_6_CU_C;
    spacing OHSpacing_HORIZONTAL_2P_88;
}

// L_900023214_LineConfig
object line_configuration {
    name L_900023214_LineConfig;
    conductor_A OHCond_1/0_AAC_I;
    conductor_B OHCond_1/0_AAC_I;
    conductor_C OHCond_1/0_AAC_I;
    spacing OHSpacing_HORIZONTAL_3P_52;
}

// L_900060461_LineConfig
object line_configuration {
    name L_900060461_LineConfig;
    conductor_A OHCond_4_ACSR_C;
    conductor_B OHCond_4_ACSR_C;
    conductor_N OHCond_4_ACSR_C;
    spacing OHSpacing_HORIZONTAL_2P_88;
}

// L_900012001_LineConfig
object line_configuration {
    name L_900012001_LineConfig;
    conductor_A OHCond_397_AAC_I;
    conductor_B OHCond_397_AAC_I;
    conductor_C OHCond_397_AAC_I;
    spacing OHSpacing_HORIZONTAL_3P_52;
}

// L_900060161_LineConfig
object line_configuration {
    name L_900060161_LineConfig;
    conductor_B OHCond_4_ACSR_C;
    conductor_C OHCond_4_ACSR_C;
    spacing OHSpacing_HORIZONTAL_2P_52;
}

// L_900061721_LineConfig
object line_configuration {
    name L_900061721_LineConfig;
    conductor_A OHCond_6_CU_I;
    conductor_B OHCond_6_CU_I;
    spacing OHSpacing_HORIZONTAL_2P_56;
}

// L_900081541_LineConfig
object line_configuration {
    name L_900081541_LineConfig;
    conductor_A OHCond_1/0_AAC_I;
    conductor_B OHCond_1/0_AAC_I;
    conductor_C OHCond_1/0_AAC_I;
    spacing OHSpacing_HORIZONTAL_3P_52;
}

// L_900027900_LineConfig
object line_configuration {
    name L_900027900_LineConfig;
    conductor_C OHCond_4_ACSR_C;
    conductor_N OHCond_4_ACSR_C;
    spacing OHSpacing_HORIZONTAL_1P_56;
}

// L_900116700_LineConfig
object line_configuration {
    name L_900116700_LineConfig;
    conductor_A OHCond_1/0_CU_I;
    conductor_B OHCond_1/0_CU_I;
    conductor_C OHCond_1/0_CU_I;
    spacing OHSpacing_HORIZONTAL_3P_52;
}

// L_900060201_LineConfig
object line_configuration {
    name L_900060201_LineConfig;
    conductor_B OHCond_4_ACSR_C;
    conductor_C OHCond_4_ACSR_C;
    spacing OHSpacing_HORIZONTAL_2P_56;
}

// L_900047577_LineConfig
object line_configuration {
    name L_900047577_LineConfig;
    conductor_B OHCond_4_CU_C;
    conductor_C OHCond_4_CU_C;
    spacing OHSpacing_HORIZONTAL_2P_88;
}

// L_900059261_LineConfig
object line_configuration {
    name L_900059261_LineConfig;
    conductor_B OHCond_4_ACSR_C;
    conductor_C OHCond_4_ACSR_C;
    conductor_N OHCond_4_ACSR_C;
    spacing OHSpacing_TRIANGULAR_2P_36;
}

// L_900057531_LineConfig
object line_configuration {
    name L_900057531_LineConfig;
    conductor_A OHCond_4_CU_I;
    conductor_B OHCond_4_CU_I;
    conductor_C OHCond_4_CU_I;
    spacing OHSpacing_HORIZONTAL_3P_52;
}

// L_900059321_LineConfig
object line_configuration {
    name L_900059321_LineConfig;
    conductor_A OHCond_6_CU_I;
    conductor_B OHCond_6_CU_I;
    conductor_N OHCond_6_CU_I;
    spacing OHSpacing_HORIZONTAL_2P_88;
}

// L_900060458_LineConfig
object line_configuration {
    name L_900060458_LineConfig;
    conductor_A OHCond_6_CU_C;
    conductor_B OHCond_6_CU_C;
    conductor_C OHCond_6_CU_C;
    conductor_N OHCond_6_CU_C;
    spacing OHSpacing_HORIZONTAL_3P_52;
}

// L_900037798_LineConfig
object line_configuration {
    name L_900037798_LineConfig;
    conductor_B OHCond_4_ACSR_C;
    conductor_C OHCond_4_ACSR_C;
    spacing OHSpacing_HORIZONTAL_2P_52;
}

// L_900061634_LineConfig
object line_configuration {
    name L_900061634_LineConfig;
    conductor_A OHCond_4_ACSR_I;
    conductor_B OHCond_4_ACSR_I;
    spacing OHSpacing_HORIZONTAL_2P_88;
}

// L_900133460_LineConfig
object line_configuration {
    name L_900133460_LineConfig;
    conductor_B OHCond_4_ACSR_C;
    conductor_C OHCond_4_ACSR_C;
    spacing OHSpacing_TRIANGULAR_2P_45;
}

// L_900060154_LineConfig
object line_configuration {
    name L_900060154_LineConfig;
    conductor_B OHCond_4_ACSR_C;
    conductor_C OHCond_4_ACSR_C;
    spacing OHSpacing_HORIZONTAL_2P_52;
}

// L_900001914_LineConfig
object line_configuration {
    name L_900001914_LineConfig;
    conductor_A OHCond_4/0_AAC_C;
    conductor_B OHCond_4/0_AAC_C;
    conductor_C OHCond_4/0_AAC_C;
    spacing OHSpacing_HORIZONTAL_3P_52;
}

// L_900057569_LineConfig
object line_configuration {
    name L_900057569_LineConfig;
    conductor_C OHCond_4_ACSR_C;
    conductor_N OHCond_4_ACSR_C;
    spacing OHSpacing_HORIZONTAL_1P_56;
}

// L_900111542_LineConfig
object line_configuration {
    name L_900111542_LineConfig;
    conductor_B OHCond_4_ACSR_C;
    conductor_C OHCond_4_ACSR_C;
    spacing OHSpacing_VERTICAL_2P_18;
}

// L_900060018_LineConfig
object line_configuration {
    name L_900060018_LineConfig;
    conductor_C OHCond_4_ACSR_C;
    spacing OHSpacing_HORIZONTAL_1P_52;
}

// L_900060214_LineConfig
object line_configuration {
    name L_900060214_LineConfig;
    conductor_B OHCond_6_CU_C;
    conductor_C OHCond_6_CU_C;
    spacing OHSpacing_HORIZONTAL_2P_88;
}

// L_900050235_LineConfig
object line_configuration {
    name L_900050235_LineConfig;
    conductor_B OHCond_4_CU_C;
    conductor_C OHCond_4_CU_C;
    spacing OHSpacing_HORIZONTAL_2P_88;
}

// L_900059898_LineConfig
object line_configuration {
    name L_900059898_LineConfig;
    conductor_B OHCond_4_CU_C;
    conductor_C OHCond_4_CU_C;
    spacing OHSpacing_HORIZONTAL_2P_39;
}

// L_900060462_LineConfig
object line_configuration {
    name L_900060462_LineConfig;
    conductor_A OHCond_6_CU_C;
    conductor_B OHCond_6_CU_C;
    conductor_C OHCond_6_CU_C;
    spacing OHSpacing_HORIZONTAL_3P_52;
}

// L_900006330_LineConfig
object line_configuration {
    name L_900006330_LineConfig;
    conductor_B OHCond_4_CU_C;
    conductor_C OHCond_4_CU_C;
    spacing OHSpacing_HORIZONTAL_2P_88;
}

// L_900059797_LineConfig
object line_configuration {
    name L_900059797_LineConfig;
    conductor_B OHCond_4_ACSR_C;
    conductor_C OHCond_4_ACSR_C;
    spacing OHSpacing_HORIZONTAL_2P_88;
}

// L_900053326_LineConfig
object line_configuration {
    name L_900053326_LineConfig;
    conductor_C OHCond_4_CU_I;
    spacing OHSpacing_HORIZONTAL_1P_88;
}

// L_900057729_LineConfig
object line_configuration {
    name L_900057729_LineConfig;
    conductor_A OHCond_4_CU_I;
    conductor_B OHCond_4_CU_I;
    conductor_C OHCond_4_CU_I;
    spacing OHSpacing_HORIZONTAL_3P_52;
}

// L_900061652_LineConfig
object line_configuration {
    name L_900061652_LineConfig;
    conductor_A OHCond_6_CU_I;
    conductor_B OHCond_6_CU_I;
    conductor_N OHCond_6_CU_I;
    spacing OHSpacing_HORIZONTAL_2P_88;
}

// L_900055554_LineConfig
object line_configuration {
    name L_900055554_LineConfig;
    conductor_A OHCond_4_ACSR_C;
    conductor_B OHCond_4_ACSR_C;
    spacing OHSpacing_HORIZONTAL_2P_52;
}

// L_900043168_LineConfig
object line_configuration {
    name L_900043168_LineConfig;
    conductor_B OHCond_4_CU_C;
    conductor_C OHCond_4_CU_C;
    spacing OHSpacing_HORIZONTAL_2P_39;
}

// L_900001916_LineConfig
object line_configuration {
    name L_900001916_LineConfig;
    conductor_A OHCond_4/0_AAC_C;
    conductor_B OHCond_4/0_AAC_C;
    conductor_C OHCond_4/0_AAC_C;
    spacing OHSpacing_HORIZONTAL_3P_52;
}

// L_900057509_LineConfig
object line_configuration {
    name L_900057509_LineConfig;
    conductor_A OHCond_4_ACSR_I;
    conductor_B OHCond_4_ACSR_I;
    spacing OHSpacing_TRIANGULAR_2P_52;
}

// L_900001909_LineConfig
object line_configuration {
    name L_900001909_LineConfig;
    conductor_A OHCond_4/0_AAC_C;
    conductor_B OHCond_4/0_AAC_C;
    conductor_C OHCond_4/0_AAC_C;
    spacing OHSpacing_HORIZONTAL_3P_52;
}

// L_900001891_LineConfig
object line_configuration {
    name L_900001891_LineConfig;
    conductor_A OHCond_6_CU_I;
    conductor_B OHCond_6_CU_I;
    conductor_N OHCond_6_CU_I;
    spacing OHSpacing_HORIZONTAL_2P_88;
}

// L_900059830_LineConfig
object line_configuration {
    name L_900059830_LineConfig;
    conductor_B OHCond_4_ACSR_C;
    conductor_C OHCond_4_ACSR_C;
    spacing OHSpacing_HORIZONTAL_2P_88;
}

// L_900057721_LineConfig
object line_configuration {
    name L_900057721_LineConfig;
    conductor_A OHCond_4_CU_I;
    conductor_B OHCond_4_CU_I;
    conductor_C OHCond_4_CU_I;
    spacing OHSpacing_HORIZONTAL_3P_52;
}

// L_900060466_LineConfig
object line_configuration {
    name L_900060466_LineConfig;
    conductor_A OHCond_4_ACSR_C;
    conductor_B OHCond_4_ACSR_C;
    conductor_N OHCond_4_ACSR_C;
    spacing OHSpacing_HORIZONTAL_2P_88;
}

// L_900057593_LineConfig
object line_configuration {
    name L_900057593_LineConfig;
    conductor_A OHCond_397_AAC_I;
    conductor_B OHCond_397_AAC_I;
    conductor_C OHCond_397_AAC_I;
    spacing OHSpacing_HORIZONTAL_3P_52;
}

// L_900023215_LineConfig
object line_configuration {
    name L_900023215_LineConfig;
    conductor_A OHCond_4_ACSR_I;
    conductor_B OHCond_4_ACSR_I;
    conductor_C OHCond_4_ACSR_I;
    spacing OHSpacing_HORIZONTAL_3P_52;
}

// L_900064377_LineConfig
object line_configuration {
    name L_900064377_LineConfig;
    conductor_B OHCond_4_CU_C;
    conductor_C OHCond_4_CU_C;
    spacing OHSpacing_HORIZONTAL_2P_88;
}

// L_900081816_LineConfig
object line_configuration {
    name L_900081816_LineConfig;
    conductor_A OHCond_1/0_AAC_I;
    conductor_B OHCond_1/0_AAC_I;
    spacing OHSpacing_HORIZONTAL_2P_52;
}

// L_900057840_LineConfig
object line_configuration {
    name L_900057840_LineConfig;
    conductor_A OHCond_6_CU_I;
    conductor_B OHCond_6_CU_I;
    spacing OHSpacing_HORIZONTAL_2P_52;
}

// L_900060137_LineConfig
object line_configuration {
    name L_900060137_LineConfig;
    conductor_B OHCond_4_CU_C;
    conductor_C OHCond_4_CU_C;
    spacing OHSpacing_HORIZONTAL_2P_88;
}

// L_900042793_LineConfig
object line_configuration {
    name L_900042793_LineConfig;
    conductor_B OHCond_4_ACSR_I;
    conductor_C OHCond_4_ACSR_I;
    spacing OHSpacing_TRIANGULAR_2P_52;
}

// L_900059324_LineConfig
object line_configuration {
    name L_900059324_LineConfig;
    conductor_A OHCond_397_AAC_I;
    conductor_B OHCond_397_AAC_I;
    conductor_C OHCond_397_AAC_I;
    spacing OHSpacing_HORIZONTAL_3P_52;
}

// L_900001915_LineConfig
object line_configuration {
    name L_900001915_LineConfig;
    conductor_A OHCond_4/0_AAC_C;
    conductor_B OHCond_4/0_AAC_C;
    conductor_C OHCond_4/0_AAC_C;
    spacing OHSpacing_HORIZONTAL_3P_52;
}

// L_900002009_LineConfig
object line_configuration {
    name L_900002009_LineConfig;
    conductor_B OHCond_4_CU_C;
    conductor_C OHCond_4_CU_C;
    spacing OHSpacing_HORIZONTAL_2P_88;
}

// L_900006323_LineConfig
object line_configuration {
    name L_900006323_LineConfig;
    conductor_C OHCond_4_ACSR_C;
    spacing OHSpacing_HORIZONTAL_1P_52;
}

// L_900011995_LineConfig
object line_configuration {
    name L_900011995_LineConfig;
    conductor_C OHCond_4_CU_I;
    spacing OHSpacing_HORIZONTAL_1P_88;
}

// L_900061722_LineConfig
object line_configuration {
    name L_900061722_LineConfig;
    conductor_A OHCond_6_CU_I;
    conductor_B OHCond_6_CU_I;
    spacing OHSpacing_HORIZONTAL_2P_56;
}

// L_900116699_LineConfig
object line_configuration {
    name L_900116699_LineConfig;
    conductor_A OHCond_397_AAC_I;
    conductor_B OHCond_397_AAC_I;
    conductor_C OHCond_397_AAC_I;
    spacing OHSpacing_HORIZONTAL_3P_52;
}

// L_900023492_LineConfig
object line_configuration {
    name L_900023492_LineConfig;
    conductor_A OHCond_397_AAC_I;
    conductor_B OHCond_397_AAC_I;
    conductor_C OHCond_397_AAC_I;
    spacing OHSpacing_HORIZONTAL_3P_52;
}

// L_900006317_LineConfig
object line_configuration {
    name L_900006317_LineConfig;
    conductor_C OHCond_4_ACSR_C;
    spacing OHSpacing_HORIZONTAL_1P_52;
}

// L_900060510_LineConfig
object line_configuration {
    name L_900060510_LineConfig;
    conductor_A OHCond_397_AAC_I;
    conductor_B OHCond_397_AAC_I;
    conductor_C OHCond_397_AAC_I;
    spacing OHSpacing_HORIZONTAL_3P_52;
}

// L_900060219_LineConfig
object line_configuration {
    name L_900060219_LineConfig;
    conductor_B OHCond_4_ACSR_C;
    conductor_C OHCond_4_ACSR_C;
    spacing OHSpacing_HORIZONTAL_2P_88;
}

// L_900001999_LineConfig
object line_configuration {
    name L_900001999_LineConfig;
    conductor_B OHCond_4_CU_C;
    conductor_C OHCond_4_CU_C;
    spacing OHSpacing_HORIZONTAL_2P_39;
}

// L_900023903_LineConfig
object line_configuration {
    name L_900023903_LineConfig;
    conductor_A OHCond_397_AAC_I;
    conductor_B OHCond_397_AAC_I;
    conductor_C OHCond_397_AAC_I;
    spacing OHSpacing_HORIZONTAL_3P_52;
}

// L_900110747_LineConfig
object line_configuration {
    name L_900110747_LineConfig;
    conductor_B OHCond_4_ACSR_C;
    conductor_C OHCond_4_ACSR_C;
    spacing OHSpacing_HORIZONTAL_2P_39;
}

// L_900042113_LineConfig
object line_configuration {
    name L_900042113_LineConfig;
    conductor_A OHCond_715_AAC_I;
    conductor_B OHCond_715_AAC_I;
    conductor_C OHCond_715_AAC_I;
    spacing OHSpacing_HORIZONTAL_3P_88;
}

// L_900001920_LineConfig
object line_configuration {
    name L_900001920_LineConfig;
    conductor_A OHCond_4/0_AAC_C;
    conductor_B OHCond_4/0_AAC_C;
...